<configuration>
	<input>
		<net-file value="helloSUMO.net.xml"/>
		<route-files value="helloSUMO.rou.xml"/>
		<gui-settings-file value="helloSUMO.settings.xml"/>
	</input>
	<time>
		<begin value="0"/>
		<end value="10000"/>
	</time>
</configuration>