<?xml version="1.0" encoding="UTF-8"?>

<!-- generated on Sun Aug 11 14:39:23 2019 by Eclipse SUMO netconvert Version 1.2.0
<configuration xmlns:xsi="http://www.w3.org/2001/XMLSchema-instance" xsi:noNamespaceSchemaLocation="http://sumo.dlr.de/xsd/netconvertConfiguration.xsd">

    <input>
        <osm-files value="map.osm"/>
    </input>

    <projection>
        <proj.utm value="true"/>
    </projection>

</configuration>
-->

<net version="1.1" junctionCornerDetail="5" limitTurnSpeed="5.50" xmlns:xsi="http://www.w3.org/2001/XMLSchema-instance" xsi:noNamespaceSchemaLocation="http://sumo.dlr.de/xsd/net_file.xsd">

    <location netOffset="-384140.88,4055564.24" convBoundary="0.00,0.00,1288.87,1475.92" origBoundary="-64.295938,-36.638743,-64.281582,-36.625403" projParameter="+proj=utm +zone=20 +ellps=WGS84 +datum=WGS84 +units=m +no_defs"/>

    <type id="highway.bridleway" priority="1" numLanes="1" speed="2.78" allow="pedestrian" oneway="1" width="2.00"/>
    <type id="highway.bus_guideway" priority="1" numLanes="1" speed="27.78" allow="bus" oneway="1"/>
    <type id="highway.cycleway" priority="1" numLanes="1" speed="8.33" allow="bicycle" oneway="0" width="1.00"/>
    <type id="highway.footway" priority="1" numLanes="1" speed="2.78" allow="pedestrian" oneway="1" width="2.00"/>
    <type id="highway.ford" priority="1" numLanes="1" speed="2.78" allow="army" oneway="0"/>
    <type id="highway.living_street" priority="2" numLanes="1" speed="2.78" disallow="tram rail_urban rail rail_electric ship" oneway="0"/>
    <type id="highway.motorway" priority="14" numLanes="2" speed="39.44" allow="private emergency authority army vip passenger hov taxi bus coach delivery truck trailer motorcycle evehicle custom1 custom2" oneway="1"/>
    <type id="highway.motorway_link" priority="9" numLanes="1" speed="22.22" allow="private emergency authority army vip passenger hov taxi bus coach delivery truck trailer motorcycle evehicle custom1 custom2" oneway="1"/>
    <type id="highway.path" priority="1" numLanes="1" speed="2.78" allow="bicycle pedestrian" oneway="1" width="2.00"/>
    <type id="highway.pedestrian" priority="1" numLanes="1" speed="2.78" allow="pedestrian" oneway="1" width="2.00"/>
    <type id="highway.primary" priority="12" numLanes="2" speed="27.78" disallow="tram rail_urban rail rail_electric ship" oneway="0"/>
    <type id="highway.primary_link" priority="7" numLanes="1" speed="22.22" disallow="tram rail_urban rail rail_electric ship" oneway="0"/>
    <type id="highway.raceway" priority="15" numLanes="2" speed="83.33" allow="vip" oneway="0"/>
    <type id="highway.residential" priority="3" numLanes="1" speed="13.89" disallow="tram rail_urban rail rail_electric ship" oneway="0"/>
    <type id="highway.secondary" priority="11" numLanes="2" speed="27.78" disallow="tram rail_urban rail rail_electric ship" oneway="0"/>
    <type id="highway.secondary_link" priority="6" numLanes="1" speed="22.22" disallow="tram rail_urban rail rail_electric ship" oneway="0"/>
    <type id="highway.service" priority="1" numLanes="1" speed="5.56" allow="delivery bicycle pedestrian" oneway="0"/>
    <type id="highway.stairs" priority="1" numLanes="1" speed="1.39" allow="pedestrian" oneway="1" width="2.00"/>
    <type id="highway.step" priority="1" numLanes="1" speed="1.39" allow="pedestrian" oneway="1" width="2.00"/>
    <type id="highway.steps" priority="1" numLanes="1" speed="1.39" allow="pedestrian" oneway="1" width="2.00"/>
    <type id="highway.tertiary" priority="10" numLanes="1" speed="22.22" disallow="tram rail_urban rail rail_electric ship" oneway="0"/>
    <type id="highway.tertiary_link" priority="5" numLanes="1" speed="22.22" disallow="tram rail_urban rail rail_electric ship" oneway="0"/>
    <type id="highway.track" priority="1" numLanes="1" speed="5.56" disallow="tram rail_urban rail rail_electric ship" oneway="0"/>
    <type id="highway.trunk" priority="13" numLanes="2" speed="27.78" disallow="tram rail_urban rail rail_electric bicycle pedestrian ship" oneway="0"/>
    <type id="highway.trunk_link" priority="8" numLanes="1" speed="22.22" disallow="tram rail_urban rail rail_electric bicycle pedestrian ship" oneway="0"/>
    <type id="highway.unclassified" priority="4" numLanes="1" speed="13.89" disallow="tram rail_urban rail rail_electric ship" oneway="0"/>
    <type id="highway.unsurfaced" priority="1" numLanes="1" speed="8.33" disallow="tram rail_urban rail rail_electric ship" oneway="0"/>
    <type id="railway.light_rail" priority="19" numLanes="1" speed="27.78" allow="rail_urban" oneway="1"/>
    <type id="railway.preserved" priority="16" numLanes="1" speed="27.78" allow="rail" oneway="1"/>
    <type id="railway.rail" priority="20" numLanes="1" speed="83.33" allow="rail rail_electric" oneway="1"/>
    <type id="railway.subway" priority="18" numLanes="1" speed="27.78" allow="rail_urban" oneway="1"/>
    <type id="railway.tram" priority="17" numLanes="1" speed="13.89" allow="tram" oneway="1"/>

    <edge id=":1075598983_0" function="internal">
        <lane id=":1075598983_0_0" index="0" disallow="tram rail_urban rail rail_electric ship" speed="6.51" length="9.04" shape="479.41,878.48 477.92,880.46 477.43,882.45 477.92,884.43 479.40,886.41"/>
    </edge>
    <edge id=":1075598983_1" function="internal">
        <lane id=":1075598983_1_0" index="0" disallow="tram rail_urban rail rail_electric ship" speed="13.89" length="11.21" shape="479.41,878.48 471.45,886.37"/>
    </edge>
    <edge id=":1075598983_2" function="internal">
        <lane id=":1075598983_2_0" index="0" disallow="tram rail_urban rail rail_electric ship" speed="13.89" length="11.20" shape="471.51,878.45 479.40,886.41"/>
    </edge>
    <edge id=":1075598983_3" function="internal">
        <lane id=":1075598983_3_0" index="0" disallow="tram rail_urban rail rail_electric ship" speed="6.50" length="4.26" shape="471.51,878.45 472.98,880.44 473.40,882.18"/>
    </edge>
    <edge id=":1075598983_4" function="internal">
        <lane id=":1075598983_4_0" index="0" disallow="tram rail_urban rail rail_electric ship" speed="6.50" length="4.77" shape="473.40,882.18 473.46,882.43 472.95,884.40 471.45,886.37"/>
    </edge>
    <edge id=":1075599040_0" function="internal">
        <lane id=":1075599040_0_0" index="0" disallow="tram rail_urban rail rail_electric ship" speed="6.38" length="9.04" shape="386.35,791.57 388.29,793.14 390.23,793.68 392.19,793.19 394.17,791.66"/>
    </edge>
    <edge id=":1075599040_1" function="internal">
        <lane id=":1075599040_1_0" index="0" disallow="tram rail_urban rail rail_electric ship" speed="13.89" length="11.28" shape="386.35,791.57 394.12,799.74"/>
    </edge>
    <edge id=":1075599040_2" function="internal">
        <lane id=":1075599040_2_0" index="0" disallow="tram rail_urban rail rail_electric ship" speed="13.89" length="11.28" shape="386.18,799.62 394.17,791.66"/>
    </edge>
    <edge id=":1075599040_3" function="internal">
        <lane id=":1075599040_3_0" index="0" disallow="tram rail_urban rail rail_electric ship" speed="6.53" length="4.36" shape="386.18,799.62 388.19,798.18 390.03,797.75"/>
    </edge>
    <edge id=":1075599040_4" function="internal">
        <lane id=":1075599040_4_0" index="0" disallow="tram rail_urban rail rail_electric ship" speed="6.53" length="4.67" shape="390.03,797.75 390.18,797.72 392.16,798.24 394.12,799.74"/>
    </edge>
    <edge id=":1075599063_0" function="internal">
        <lane id=":1075599063_0_0" index="0" disallow="tram rail_urban rail rail_electric ship" speed="6.53" length="9.02" shape="566.52,791.26 565.04,793.23 564.54,795.21 565.02,797.20 566.47,799.19"/>
    </edge>
    <edge id=":1075599063_1" function="internal">
        <lane id=":1075599063_1_0" index="0" disallow="tram rail_urban rail rail_electric ship" speed="13.89" length="11.14" shape="566.52,791.26 558.65,799.14"/>
    </edge>
    <edge id=":1075599063_2" function="internal">
        <lane id=":1075599063_2_0" index="0" disallow="tram rail_urban rail rail_electric ship" speed="13.89" length="11.14" shape="558.70,791.20 566.47,799.19"/>
    </edge>
    <edge id=":1075599063_3" function="internal">
        <lane id=":1075599063_3_0" index="0" disallow="tram rail_urban rail rail_electric ship" speed="6.54" length="4.27" shape="558.70,791.20 560.16,793.20 560.57,794.95"/>
    </edge>
    <edge id=":1075599063_4" function="internal">
        <lane id=":1075599063_4_0" index="0" disallow="tram rail_urban rail rail_electric ship" speed="6.54" length="4.75" shape="560.57,794.95 560.63,795.19 560.13,797.17 558.65,799.14"/>
    </edge>
    <edge id=":1075599114_0" function="internal">
        <lane id=":1075599114_0_0" index="0" disallow="tram rail_urban rail rail_electric ship" speed="6.51" length="9.01" shape="472.49,702.57 474.48,704.03 476.46,704.51 478.43,704.00 480.40,702.50"/>
    </edge>
    <edge id=":1075599114_1" function="internal">
        <lane id=":1075599114_1_0" index="0" disallow="tram rail_urban rail rail_electric ship" speed="13.89" length="11.22" shape="472.49,702.57 480.41,710.53"/>
    </edge>
    <edge id=":1075599114_2" function="internal">
        <lane id=":1075599114_2_0" index="0" disallow="tram rail_urban rail rail_electric ship" speed="13.89" length="11.23" shape="472.56,710.53 480.40,702.50"/>
    </edge>
    <edge id=":1075599114_3" function="internal">
        <lane id=":1075599114_3_0" index="0" disallow="tram rail_urban rail rail_electric ship" speed="6.43" length="4.23" shape="472.56,710.53 474.52,709.01 476.21,708.58"/>
    </edge>
    <edge id=":1075599114_4" function="internal">
        <lane id=":1075599114_4_0" index="0" disallow="tram rail_urban rail rail_electric ship" speed="6.43" length="4.79" shape="476.21,708.58 476.48,708.50 478.44,709.01 480.41,710.53"/>
    </edge>
    <edge id=":1075599123_0" function="internal">
        <lane id=":1075599123_0_0" index="0" disallow="tram rail_urban rail rail_electric ship" speed="6.50" length="9.03" shape="553.22,960.29 555.20,961.78 557.18,962.27 559.16,961.77 561.14,960.28"/>
    </edge>
    <edge id=":1075599123_1" function="internal">
        <lane id=":1075599123_1_0" index="0" disallow="tram rail_urban rail rail_electric ship" speed="13.89" length="11.22" shape="553.22,960.29 561.09,968.29"/>
    </edge>
    <edge id=":1075599123_2" function="internal">
        <lane id=":1075599123_2_0" index="0" disallow="tram rail_urban rail rail_electric ship" speed="13.89" length="11.22" shape="553.19,968.20 561.14,960.28"/>
    </edge>
    <edge id=":1075599123_3" function="internal">
        <lane id=":1075599123_3_0" index="0" disallow="tram rail_urban rail rail_electric ship" speed="6.49" length="4.25" shape="553.19,968.20 555.18,966.73 556.90,966.31"/>
    </edge>
    <edge id=":1075599123_4" function="internal">
        <lane id=":1075599123_4_0" index="0" disallow="tram rail_urban rail rail_electric ship" speed="6.49" length="4.78" shape="556.90,966.31 557.16,966.25 559.13,966.77 561.09,968.29"/>
    </edge>
    <edge id=":1075599177_0" function="internal">
        <lane id=":1075599177_0_0" index="0" disallow="tram rail_urban rail rail_electric ship" speed="6.48" length="9.03" shape="395.67,968.51 393.68,967.02 391.70,966.54 389.73,967.05 387.76,968.55"/>
    </edge>
    <edge id=":1075599177_1" function="internal">
        <lane id=":1075599177_1_0" index="0" disallow="tram rail_urban rail rail_electric ship" speed="13.89" length="11.22" shape="395.67,968.51 387.77,960.54"/>
    </edge>
    <edge id=":1075599177_2" function="internal">
        <lane id=":1075599177_2_0" index="0" disallow="tram rail_urban rail rail_electric ship" speed="13.89" length="11.23" shape="395.70,960.61 387.76,968.55"/>
    </edge>
    <edge id=":1075599177_3" function="internal">
        <lane id=":1075599177_3_0" index="0" disallow="tram rail_urban rail rail_electric ship" speed="6.51" length="4.27" shape="395.70,960.61 393.70,962.08 391.96,962.50"/>
    </edge>
    <edge id=":1075599177_4" function="internal">
        <lane id=":1075599177_4_0" index="0" disallow="tram rail_urban rail rail_electric ship" speed="6.51" length="4.77" shape="391.96,962.50 391.72,962.56 389.74,962.04 387.77,960.54"/>
    </edge>
    <edge id=":1075599226_0" function="internal">
        <lane id=":1075599226_0_0" index="0" disallow="tram rail_urban rail rail_electric ship" speed="6.49" length="9.03" shape="639.17,873.78 641.13,875.29 643.10,875.81 645.08,875.32 647.07,873.85"/>
    </edge>
    <edge id=":1075599226_1" function="internal">
        <lane id=":1075599226_1_0" index="0" disallow="tram rail_urban rail rail_electric ship" speed="13.89" length="11.23" shape="639.17,873.78 647.04,881.79"/>
    </edge>
    <edge id=":1075599226_2" function="internal">
        <lane id=":1075599226_2_0" index="0" disallow="tram rail_urban rail rail_electric ship" speed="13.89" length="11.23" shape="639.13,881.78 647.07,873.85"/>
    </edge>
    <edge id=":1075599226_3" function="internal">
        <lane id=":1075599226_3_0" index="0" disallow="tram rail_urban rail rail_electric ship" speed="6.49" length="4.31" shape="639.13,881.78 641.11,880.29 642.88,879.84"/>
    </edge>
    <edge id=":1075599226_4" function="internal">
        <lane id=":1075599226_4_0" index="0" disallow="tram rail_urban rail rail_electric ship" speed="6.49" length="4.72" shape="642.88,879.84 643.08,879.79 645.06,880.29 647.04,881.79"/>
    </edge>
    <edge id=":1075599249_0" function="internal">
        <lane id=":1075599249_0_0" index="0" disallow="tram rail_urban rail rail_electric ship" speed="13.89" length="11.22" shape="309.66,880.86 301.81,872.84"/>
    </edge>
    <edge id=":1075599249_1" function="internal">
        <lane id=":1075599249_1_0" index="0" disallow="tram rail_urban rail rail_electric ship" speed="6.48" length="4.28" shape="309.66,880.86 308.19,878.86 307.78,877.11"/>
    </edge>
    <edge id=":1075599249_4" function="internal">
        <lane id=":1075599249_4_0" index="0" disallow="tram rail_urban rail rail_electric ship" speed="6.48" length="4.76" shape="307.78,877.11 307.72,876.88 308.25,874.91 309.78,872.96"/>
    </edge>
    <edge id=":1075599249_2" function="internal">
        <lane id=":1075599249_2_0" index="0" disallow="tram rail_urban rail rail_electric ship" speed="6.50" length="9.03" shape="301.70,880.75 303.22,878.79 303.74,876.82 303.27,874.84 301.81,872.84"/>
    </edge>
    <edge id=":1075599249_3" function="internal">
        <lane id=":1075599249_3_0" index="0" disallow="tram rail_urban rail rail_electric ship" speed="13.89" length="11.22" shape="301.70,880.75 309.78,872.96"/>
    </edge>
    <edge id=":1075599437_0" function="internal">
        <lane id=":1075599437_0_0" index="0" disallow="tram rail_urban rail rail_electric ship" speed="13.89" length="11.22" shape="477.68,1050.72 469.88,1042.67"/>
    </edge>
    <edge id=":1075599437_1" function="internal">
        <lane id=":1075599437_1_0" index="0" disallow="tram rail_urban rail rail_electric ship" speed="6.59" length="4.32" shape="477.68,1050.72 476.24,1048.68 475.83,1046.90"/>
    </edge>
    <edge id=":1075599437_4" function="internal">
        <lane id=":1075599437_4_0" index="0" disallow="tram rail_urban rail rail_electric ship" speed="6.59" length="4.78" shape="475.83,1046.90 475.78,1046.66 476.29,1044.66 477.79,1042.69"/>
    </edge>
    <edge id=":1075599437_2" function="internal">
        <lane id=":1075599437_2_0" index="0" disallow="tram rail_urban rail rail_electric ship" speed="6.53" length="9.06" shape="469.85,1050.62 471.34,1048.62 471.84,1046.62 471.35,1044.64 469.88,1042.67"/>
    </edge>
    <edge id=":1075599437_3" function="internal">
        <lane id=":1075599437_3_0" index="0" disallow="tram rail_urban rail rail_electric ship" speed="13.89" length="11.21" shape="469.85,1050.62 477.79,1042.69"/>
    </edge>

    <edge id="188834110#0" from="1075598998" to="1075599040" priority="3" type="highway.residential" spreadType="center" shape="0.00,399.24 73.20,473.02 86.44,486.79 124.19,525.21 157.00,558.58 188.40,590.51 220.29,619.56 306.71,705.03 390.21,795.76">
        <lane id="188834110#0_0" index="0" disallow="tram rail_urban rail rail_electric ship" speed="13.89" length="550.77" shape="-0.00,399.24 73.20,473.02 86.44,486.79 124.19,525.21 157.00,558.58 188.40,590.51 220.29,619.56 306.71,705.03 386.35,791.57"/>
    </edge>
    <edge id="188834110#1" from="1075599040" to="1075598983" priority="3" type="highway.residential" spreadType="center">
        <lane id="188834110#1_0" index="0" disallow="tram rail_urban rail rail_electric ship" speed="13.89" length="110.39" shape="394.12,799.74 471.51,878.45"/>
    </edge>
    <edge id="188834110#2" from="1075598983" to="1075599123" priority="3" type="highway.residential" spreadType="center">
        <lane id="188834110#2_0" index="0" disallow="tram rail_urban rail rail_electric ship" speed="13.89" length="104.44" shape="479.40,886.41 553.22,960.29"/>
    </edge>
    <edge id="188834110#3" from="1075599123" to="1075599182" priority="3" type="highway.residential" spreadType="center" shape="557.18,964.26 645.50,1055.46 728.84,1139.74 813.82,1226.61">
        <lane id="188834110#3_0" index="0" disallow="tram rail_urban rail rail_electric ship" speed="13.89" length="361.39" shape="561.09,968.29 645.50,1055.46 728.84,1139.74 813.82,1226.61"/>
    </edge>
    <edge id="92738308#0" from="1314717153" to="1075599437" priority="3" type="highway.residential" spreadType="center" shape="871.63,1475.92 871.58,1467.23 871.56,1460.43 814.66,1396.62 728.21,1309.06 644.29,1222.90 561.48,1140.11 473.82,1046.61">
        <lane id="92738308#0_0" index="0" disallow="tram rail_urban rail rail_electric ship" speed="13.89" length="583.93" shape="871.63,1475.92 871.58,1467.23 871.56,1460.43 814.66,1396.62 728.21,1309.06 644.29,1222.90 561.48,1140.11 477.68,1050.72"/>
    </edge>
    <edge id="92738308#1" from="1075599437" to="1075599177" priority="3" type="highway.residential" spreadType="center">
        <lane id="92738308#1_0" index="0" disallow="tram rail_urban rail rail_electric ship" speed="13.89" length="104.91" shape="469.88,1042.67 395.67,968.51"/>
    </edge>
    <edge id="92738308#2" from="1075599177" to="1075599249" priority="3" type="highway.residential" spreadType="center">
        <lane id="92738308#2_0" index="0" disallow="tram rail_urban rail rail_electric ship" speed="13.89" length="111.58" shape="387.77,960.54 309.66,880.86"/>
    </edge>
    <edge id="92738308#3" from="1075599249" to="1075599442" priority="3" type="highway.residential" spreadType="center" shape="305.73,876.85 221.32,790.37 135.29,704.60 106.26,672.46 73.63,638.91 56.42,621.21 41.74,606.56 5.72,570.60">
        <lane id="92738308#3_0" index="0" disallow="tram rail_urban rail rail_electric ship" speed="13.89" length="423.16" shape="301.81,872.84 221.32,790.37 135.29,704.60 106.26,672.46 73.63,638.91 56.42,621.21 41.74,606.56 5.72,570.60"/>
    </edge>
    <edge id="92738311#0" from="1314650423" to="1075599063" priority="3" type="highway.residential" spreadType="center" shape="1179.56,174.71 1109.96,249.26 1030.72,326.42 903.08,454.26 815.80,541.65 732.30,625.27 646.07,711.61 562.58,795.20">
        <lane id="92738311#0_0" index="0" disallow="tram rail_urban rail rail_electric ship" speed="13.89" length="869.52" shape="1179.56,174.71 1109.96,249.26 1030.72,326.42 903.08,454.26 815.80,541.65 732.30,625.27 646.07,711.61 566.52,791.26"/>
    </edge>
    <edge id="92738311#1" from="1075599063" to="1075598983" priority="3" type="highway.residential" spreadType="center">
        <lane id="92738311#1_0" index="0" disallow="tram rail_urban rail rail_electric ship" speed="13.89" length="112.13" shape="558.65,799.14 479.41,878.48"/>
    </edge>
    <edge id="92738311#2" from="1075598983" to="1075599177" priority="3" type="highway.residential" spreadType="center">
        <lane id="92738311#2_0" index="0" disallow="tram rail_urban rail rail_electric ship" speed="13.89" length="106.06" shape="471.45,886.37 395.70,960.61"/>
    </edge>
    <edge id="92738311#3" from="1075599177" to="1314650282" priority="3" type="highway.residential" spreadType="center" shape="391.69,964.54 305.44,1052.67 219.85,1135.78 153.36,1166.47 132.27,1188.50 32.79,1292.26">
        <lane id="92738311#3_0" index="0" disallow="tram rail_urban rail rail_electric ship" speed="13.89" length="484.47" shape="387.76,968.55 305.44,1052.67 219.85,1135.78 153.36,1166.47 132.27,1188.50 32.79,1292.26"/>
    </edge>
    <edge id="92738330#0" from="1314650200" to="1075599437" priority="3" type="highway.residential" spreadType="center" shape="302.21,1219.42 349.24,1172.04 386.48,1134.78 473.82,1046.61">
        <lane id="92738330#0_0" index="0" disallow="tram rail_urban rail rail_electric ship" speed="13.89" length="237.91" shape="302.21,1219.42 349.24,1172.04 386.48,1134.78 469.85,1050.62"/>
    </edge>
    <edge id="92738330#1" from="1075599437" to="1075599123" priority="3" type="highway.residential" spreadType="center">
        <lane id="92738330#1_0" index="0" disallow="tram rail_urban rail rail_electric ship" speed="13.89" length="105.99" shape="477.79,1042.69 553.19,968.20"/>
    </edge>
    <edge id="92738330#2" from="1075599123" to="1075599226" priority="3" type="highway.residential" spreadType="center">
        <lane id="92738330#2_0" index="0" disallow="tram rail_urban rail rail_electric ship" speed="13.89" length="110.66" shape="561.14,960.28 639.13,881.78"/>
    </edge>
    <edge id="92738330#3" from="1075599226" to="1314650819" priority="3" type="highway.residential" spreadType="center" shape="643.09,877.80 727.71,793.84 813.68,708.65 897.04,624.99 982.73,536.83 1109.74,408.86 1188.25,331.32 1201.58,325.05">
        <lane id="92738330#3_0" index="0" disallow="tram rail_urban rail rail_electric ship" speed="13.89" length="781.05" shape="647.07,873.85 727.71,793.84 813.68,708.65 897.04,624.99 982.73,536.83 1109.74,408.86 1188.25,331.32 1201.58,325.05"/>
    </edge>
    <edge id="92738347#0" from="1075599088" to="1075599249" priority="3" type="highway.residential" spreadType="center">
        <lane id="92738347#0_0" index="0" disallow="tram rail_urban rail rail_electric ship" speed="13.89" length="117.26" shape="217.49,962.35 301.70,880.75"/>
    </edge>
    <edge id="92738347#1" from="1075599249" to="1075599040" priority="3" type="highway.residential" spreadType="center">
        <lane id="92738347#1_0" index="0" disallow="tram rail_urban rail rail_electric ship" speed="13.89" length="105.90" shape="309.78,872.96 386.18,799.62"/>
    </edge>
    <edge id="92738347#2" from="1075599040" to="1075599114" priority="3" type="highway.residential" spreadType="center">
        <lane id="92738347#2_0" index="0" disallow="tram rail_urban rail rail_electric ship" speed="13.89" length="112.81" shape="394.17,791.66 472.56,710.53"/>
    </edge>
    <edge id="92738347#3" from="1075599114" to="1314650573" priority="3" type="highway.residential" spreadType="center" shape="476.48,706.48 559.27,622.40 645.23,537.55 728.78,453.78 814.48,368.22 943.63,238.55 1022.78,159.05 1093.76,89.13 1164.54,17.46 1183.80,2.49 1190.30,0.00 1197.36,1.02 1227.57,11.14 1240.81,12.03 1288.87,12.72">
        <lane id="92738347#3_0" index="0" disallow="tram rail_urban rail rail_electric ship" speed="13.89" length="1099.85" shape="480.40,702.50 559.27,622.40 645.23,537.55 728.78,453.78 814.48,368.22 943.63,238.55 1022.78,159.05 1093.76,89.13 1164.54,17.46 1183.80,2.49 1190.30,0.00 1197.36,1.02 1227.57,11.14 1240.81,12.03 1288.87,12.72"/>
    </edge>
    <edge id="92738350#0" from="1314717160" to="1075599114" priority="3" type="highway.residential" spreadType="center" shape="24.45,248.85 86.98,312.18 159.71,385.74 224.83,451.96 305.52,535.24 390.38,622.16 476.48,706.48">
        <lane id="92738350#0_0" index="0" disallow="tram rail_urban rail rail_electric ship" speed="13.89" length="637.68" shape="24.45,248.85 86.98,312.18 159.71,385.74 224.83,451.96 305.52,535.24 390.38,622.16 472.49,702.57"/>
    </edge>
    <edge id="92738350#1" from="1075599114" to="1075599063" priority="3" type="highway.residential" spreadType="center">
        <lane id="92738350#1_0" index="0" disallow="tram rail_urban rail rail_electric ship" speed="13.89" length="112.42" shape="480.41,710.53 558.70,791.20"/>
    </edge>
    <edge id="92738350#2" from="1075599063" to="1075599226" priority="3" type="highway.residential" spreadType="center">
        <lane id="92738350#2_0" index="0" disallow="tram rail_urban rail rail_electric ship" speed="13.89" length="104.16" shape="566.47,799.19 639.17,873.78"/>
    </edge>
    <edge id="92738350#3" from="1075599226" to="1314716580" priority="3" type="highway.residential" spreadType="center" shape="643.09,877.80 731.95,967.51 815.71,1053.16 901.11,1139.51 984.68,1224.55 1066.25,1309.68 1153.07,1398.21 1216.59,1464.88 1221.95,1473.42">
        <lane id="92738350#3_0" index="0" disallow="tram rail_urban rail rail_electric ship" speed="13.89" length="825.20" shape="647.04,881.79 731.95,967.51 815.71,1053.16 901.11,1139.51 984.68,1224.55 1066.25,1309.68 1153.07,1398.21 1216.59,1464.88 1221.95,1473.42"/>
    </edge>

    <junction id="1075598983" type="priority" x="475.45" y="882.45" incLanes="92738311#1_0 188834110#1_0" intLanes=":1075598983_0_0 :1075598983_1_0 :1075598983_2_0 :1075598983_4_0" shape="478.27,887.54 480.53,885.28 479.28,883.39 479.12,882.45 479.28,881.50 479.76,880.56 480.54,879.61 478.28,877.35 476.40,878.60 475.46,878.76 474.52,878.60 473.59,878.12 472.65,877.33 470.37,879.57 471.62,881.47 471.77,882.41 471.60,883.35 471.12,884.29 470.33,885.23 472.57,887.51 474.48,886.26 475.43,886.11 476.38,886.27 477.32,886.75">
        <request index="0" response="0000" foes="0100" cont="0"/>
        <request index="1" response="0000" foes="1100" cont="0"/>
        <request index="2" response="0011" foes="0011" cont="0"/>
        <request index="3" response="0010" foes="0010" cont="1"/>
    </junction>
    <junction id="1075598998" type="dead_end" x="0.00" y="399.24" incLanes="" intLanes="" shape="-1.14,400.37 1.14,398.11"/>
    <junction id="1075599040" type="priority" x="390.21" y="795.76" incLanes="188834110#0_0 92738347#1_0" intLanes=":1075599040_0_0 :1075599040_1_0 :1075599040_2_0 :1075599040_4_0" shape="392.98,800.86 395.26,798.61 394.01,796.69 393.87,795.72 394.03,794.74 394.52,793.76 395.32,792.77 393.02,790.55 391.17,791.82 390.25,791.97 389.34,791.80 388.43,791.30 387.53,790.48 385.17,792.65 386.40,794.65 386.55,795.62 386.37,796.59 385.88,797.53 385.07,798.47 387.29,800.78 389.20,799.55 390.16,799.41 391.10,799.58 392.04,800.06">
        <request index="0" response="0000" foes="0100" cont="0"/>
        <request index="1" response="0000" foes="1100" cont="0"/>
        <request index="2" response="0011" foes="0011" cont="0"/>
        <request index="3" response="0010" foes="0010" cont="1"/>
    </junction>
    <junction id="1075599063" type="priority" x="562.58" y="795.20" incLanes="92738311#0_0 92738350#1_0" intLanes=":1075599063_0_0 :1075599063_1_0 :1075599063_2_0 :1075599063_4_0" shape="565.33,800.30 567.62,798.07 566.38,796.17 566.23,795.22 566.40,794.28 566.87,793.33 567.65,792.39 565.39,790.13 563.54,791.36 562.61,791.51 561.69,791.35 560.77,790.88 559.85,790.09 557.56,792.32 558.79,794.22 558.94,795.17 558.78,796.12 558.30,797.07 557.52,798.01 559.78,800.27 561.64,799.03 562.56,798.88 563.49,799.04 564.41,799.52">
        <request index="0" response="0000" foes="0100" cont="0"/>
        <request index="1" response="0000" foes="1100" cont="0"/>
        <request index="2" response="0011" foes="0011" cont="0"/>
        <request index="3" response="0010" foes="0010" cont="1"/>
    </junction>
    <junction id="1075599088" type="dead_end" x="217.49" y="962.35" incLanes="" intLanes="" shape="218.60,963.50 216.38,961.20"/>
    <junction id="1075599114" type="priority" x="476.48" y="706.48" incLanes="92738350#0_0 92738347#2_0" intLanes=":1075599114_0_0 :1075599114_1_0 :1075599114_2_0 :1075599114_4_0" shape="479.26,711.64 481.56,709.41 480.29,707.47 480.13,706.50 480.29,705.54 480.75,704.58 481.54,703.62 479.26,701.38 477.39,702.65 476.45,702.81 475.50,702.66 474.56,702.20 473.61,701.43 471.37,703.71 472.64,705.59 472.81,706.54 472.66,707.49 472.19,708.45 471.41,709.42 473.71,711.65 475.56,710.37 476.48,710.21 477.41,710.37 478.33,710.85">
        <request index="0" response="0000" foes="0100" cont="0"/>
        <request index="1" response="0000" foes="1100" cont="0"/>
        <request index="2" response="0011" foes="0011" cont="0"/>
        <request index="3" response="0010" foes="0010" cont="1"/>
    </junction>
    <junction id="1075599123" type="priority" x="557.18" y="964.26" incLanes="188834110#2_0 92738330#1_0" intLanes=":1075599123_0_0 :1075599123_1_0 :1075599123_2_0 :1075599123_4_0" shape="559.94,969.40 562.24,967.18 560.99,965.24 560.84,964.28 561.00,963.32 561.48,962.36 562.27,961.41 560.00,959.15 558.12,960.41 557.18,960.57 556.24,960.42 555.29,959.94 554.35,959.16 552.09,961.42 553.34,963.30 553.50,964.24 553.33,965.19 552.86,966.13 552.06,967.06 554.31,969.34 556.20,968.10 557.14,967.95 558.08,968.12 559.01,968.60">
        <request index="0" response="0000" foes="0100" cont="0"/>
        <request index="1" response="0000" foes="1100" cont="0"/>
        <request index="2" response="0011" foes="0011" cont="0"/>
        <request index="3" response="0010" foes="0010" cont="1"/>
    </junction>
    <junction id="1075599177" type="priority" x="391.69" y="964.54" incLanes="92738308#1_0 92738311#2_0" intLanes=":1075599177_0_0 :1075599177_1_0 :1075599177_2_0 :1075599177_4_0" shape="394.54,969.64 396.80,967.38 395.54,965.50 395.39,964.56 395.55,963.62 396.03,962.68 396.82,961.75 394.58,959.46 392.68,960.71 391.73,960.86 390.79,960.69 389.85,960.21 388.92,959.42 386.63,961.66 387.88,963.58 388.04,964.54 387.88,965.51 387.41,966.47 386.62,967.43 388.91,969.67 390.78,968.40 391.71,968.24 392.65,968.39 393.59,968.86">
        <request index="0" response="0000" foes="0100" cont="0"/>