<routes>
	<vType id="Car01" accel="1.0" decel="5.0" length="2.0" maxSpeed="100.0" sigma="0.0"/>
	<route id="route0" edges="92738347#0 92738347#1 92738347#2 92738347#3"/>
	<route id="route1" edges="92738308#0 92738308#1 92738308#2 92738308#3"/>
	<vehicle depart="1" id="veh0" route="route0" type="Car01" />
	<vehicle depart="2" id="veh1" route="route1" type="Car01" />

</routes>